&wrfvar1
 var4d                               = .false.,
 multi_inc                           = 0,
 print_detail_grad                   = .false.,
 print_detail_be                     = .true.,
/
&wrfvar2
/
&wrfvar3
ob_format=2,
/
&wrfvar4
use_amsuaobs=true,
use_amsubobs=true,
/
&wrfvar5
check_max_iv=true,
put_rand_seed=false,
/
&wrfvar6
/
&wrfvar7
je_factor=1.0,
/
&wrfvar8
/
&wrfvar9
 trace_use                           = .true.
/
&wrfvar10
interpolate_stats=.true.
be_eta=0.9965, 0.988, 0.9765, 0.962, 0.944, 0.9215, 0.8945, 0.8504651, 0.7929502,0.7384765, 0.6869096, 0.6381202, 0.5919838, 0.5483804, 0.5071946,0.4683158, 0.4316373, 0.3970566, 0.3644752, 0.3337984, 0.3049354,0.2777988, 0.2523049, 0.2283731, 0.2059263, 0.1848902, 0.1651939,0.1467694, 0.1295513, 0.1134769, 0.09848616, 0.08452179, 0.07152872,0.05945425, 0.04824793, 0.03786149, 0.02824866, 0.0193652, 0.01116869,0.003618493,
/
&wrfvar11
cv_options_hum=1,
check_rh=0,
seed_array1=2003010100,
seed_array2=2003010100,
CALCULATE_CG_COST_FN =  T,
/
&wrfvar12
/
&wrfvar13
/
&wrfvar14
rtminit_nsensor=6,
rtminit_platform=1,1,1,1,1,1,
rtminit_satid=15,16,18,15,16,17,
rtminit_sensor=3,3,3,4,4,4,
thinning_mesh=90.0,90.0,90.0,90.0,90.0,90.0,
thinning=true,
read_biascoef=false,
biascorr=false,
biasprep=false,
qc_rad=true,
write_iv_rad_ascii=false,
write_oa_rad_ascii=true,
rtm_option=1,
only_sea_rad=false,
use_varbc=true,
freeze_varbc=false,
varbc_factor=10.0,
use_rttov_kmatrix=true,
/
&wrfvar15
/
&wrfvar16
alphacv_method=2,
ensdim_alpha=0,
alpha_truncation=0,
alpha_corr_type=3,
alpha_corr_scale=1500,
alpha_std_dev=1.0,
/
&wrfvar17
analysis_type="3D-VAR",
/
&wrfvar18
analysis_date="2008-02-05_12:00:00.0000",
/
&wrfvar19
/
&wrfvar20
/
&wrfvar21
time_window_min="2008-02-05_09:00:00.0000",
/
&wrfvar22
time_window_max="2008-02-05_15:00:00.0000",
/
&wrfvar23
jcdfi_use=false,
jcdfi_io=false,
/
&time_control
run_hours=24,
start_year=2008,
start_month=02,
start_day=05,
start_hour=12,
end_year=2008,
end_month=02,
end_day=05,
end_hour=12,
interval_seconds=21600,
input_from_file=true,
history_interval=720,
frames_per_outfile=1,
debug_level=0,
inputout_interval=180,
inputout_begin_h=3,
inputout_end_h=6,
input_outname="wrfinput_d<domain>_<date>",
write_input=false,
/
&fdda
/
&domains
time_step=360,
e_we=90,
e_sn=60,
e_vert=41,
num_metgrid_levels=27,
p_top_requested=5000,
interp_type=1,
t_extrap_type=1,
dx=60000,
dy=60000,
i_parent_start=1,
j_parent_start=1,
smooth_option=0,
/
&dfi_control
/
&tc
/
&physics
mp_physics=3,
ra_lw_physics=1,
ra_sw_physics=1,
radt=60,
sf_sfclay_physics=1,
sf_surface_physics=1,
bl_pbl_physics=1,
cu_physics=1,
cudt=5,
num_soil_layers=5,
 num_land_cat                        = 24,
mp_zero_out=2,
co2tf=0,
/
&scm
/
&dynamics
w_damping=0,
diff_opt=0,
km_opt=0,
dampcoef=0.2,
time_step_sound=4,
/
&bdy_control
specified=true,
real_data_init_type=3,
/
&grib2
/
&fire
/
&namelist_quilt
/
